/*--------------------------------*- C++ -*----------------------------------*\
  =========                 |
  \\      /  F ield         | OpenFOAM: The Open Source CFD Toolbox
   \\    /   O peration     |
    \\  /    A nd           | www.openfoam.com
     \\/     M anipulation  |
\*---------------------------------------------------------------------------*/
FoamFile
{
    version     2.0;
    format      ascii;
    class       dictionary;
    object      transportProperties;
}
// * * * * * * * * * * * * * * * * * * * * * * * * * * * * * * * * * * * * * //

transportModel  Newtonian;

// Matches Davidson (2026) Sec. 5.2's flat-plate precursor RANS setup
// (literature/pythons-rans-code-RANS-open/boundary-layer-.../exec-pyCALC-RANS.py)
nu              3.57e-5;

// ************************************************************************* //
